Version 4
SHEET 1 1112 680
WIRE 672 -96 672 -144
WIRE 464 -48 464 -96
WIRE 672 16 672 -16
WIRE 880 16 672 16
WIRE 944 16 880 16
WIRE 1008 16 944 16
WIRE 944 64 944 16
WIRE 880 80 880 16
WIRE 464 96 464 32
WIRE 464 96 416 96
WIRE 624 96 464 96
WIRE 320 112 208 112
WIRE 464 128 416 128
WIRE 672 192 672 112
WIRE 880 192 880 144
WIRE 944 192 944 144
WIRE -432 208 -432 160
WIRE -304 208 -304 160
WIRE -176 208 -176 160
WIRE 464 224 464 128
WIRE -432 336 -432 288
WIRE -304 336 -304 288
WIRE -176 336 -176 288
FLAG -176 336 0
FLAG -304 336 0
FLAG -432 336 0
FLAG -432 160 12V
FLAG -304 160 3.3V
FLAG -176 160 3.3Vp
FLAG 208 112 3.3Vp
FLAG 464 -96 12V
FLAG 1008 16 out
FLAG 464 224 0
FLAG 672 -144 12V
FLAG 672 192 0
FLAG 880 192 0
FLAG 944 192 0
SYMBOL voltage -176 192 R0
WINDOW 123 0 0 Left 0
WINDOW 39 0 0 Left 0
SYMATTR InstName V1
SYMATTR Value PULSE(0 3.2 8n 5n 10n 300n 1.3u)
SYMBOL voltage -304 192 R0
SYMATTR InstName V2
SYMATTR Value 3.3V
SYMBOL voltage -432 192 R0
SYMATTR InstName V3
SYMATTR Value 12V
SYMBOL res 448 -64 R0
SYMATTR InstName R4
SYMATTR Value 10k
SYMBOL res 656 -112 R0
SYMATTR InstName R5
SYMATTR Value 1k
SYMBOL AutoGenerated\\myBSS138 624 16 R0
SYMATTR InstName U1
SYMATTR Value BSS138/FAI
SYMBOL AutoGenerated\\BSS138_FAI 368 112 R0
SYMATTR InstName U3
SYMBOL res 928 48 R0
SYMATTR InstName R1
SYMATTR Value 10k
SYMBOL cap 864 80 R0
SYMATTR InstName C1
SYMATTR Value 15p
TEXT -464 448 Left 2 !.tran 20u
