Version 4
SHEET 1 1432 680
WIRE 256 -48 256 -96
WIRE 864 -48 864 -96
WIRE 256 48 256 32
WIRE 864 48 864 32
WIRE -768 80 -768 48
WIRE -640 80 -640 48
WIRE -528 80 -528 48
WIRE 256 192 256 112
WIRE 256 192 208 192
WIRE 288 192 256 192
WIRE 864 192 864 112
WIRE 864 192 800 192
WIRE 912 192 864 192
WIRE -768 208 -768 160
WIRE -640 208 -640 160
WIRE -528 208 -528 160
WIRE -32 208 -64 208
WIRE 96 208 48 208
WIRE 144 208 96 208
WIRE 512 208 480 208
WIRE 640 208 592 208
WIRE 704 208 640 208
WIRE 256 224 208 224
WIRE 864 224 800 224
WIRE 256 304 256 224
WIRE 864 304 864 224
FLAG -640 48 VCC
FLAG -640 208 0
FLAG 256 -96 VCC
FLAG -528 48 3.3Vp
FLAG -528 208 0
FLAG 96 208 Gate
FLAG 288 192 Drain
FLAG 256 224 Source
FLAG -768 208 0
FLAG -768 48 3.3Vs
FLAG -64 208 3.3Vp
FLAG 864 -96 VCC
FLAG 480 208 3.3Vp
FLAG 864 304 0
FLAG 256 304 0
FLAG 912 192 Drain2
FLAG 640 208 Gate2
SYMBOL res 240 -64 R0
SYMATTR InstName R1
SYMATTR Value 560
SYMBOL voltage -640 64 R0
WINDOW 123 0 0 Left 0
WINDOW 39 0 0 Left 0
SYMATTR InstName V1
SYMATTR Value 12V
SYMBOL voltage -528 64 R0
WINDOW 123 0 0 Left 0
WINDOW 39 0 0 Left 0
SYMATTR InstName V2
SYMATTR Value PULSE(0 3.3 0 9n 9n 1.2u 2.4u)
SYMBOL voltage -768 64 R0
SYMATTR InstName V3
SYMATTR Value 3.3V
SYMBOL AutoGenerated\\BSS138P 176 208 R0
SYMATTR InstName U2
SYMBOL res 608 192 R90
WINDOW 0 0 56 VBottom 2
WINDOW 3 32 56 VTop 2
SYMATTR InstName R4
SYMATTR Value 120
SYMBOL res 848 -64 R0
SYMATTR InstName R5
SYMATTR Value 560
SYMBOL LED 240 48 R0
SYMATTR InstName D1
SYMATTR Value QTLP690C
SYMBOL AutoGenerated\\BSS138_FAI 752 208 R0
SYMATTR InstName U1
SYMBOL res 64 192 R90
WINDOW 0 0 56 VBottom 2
WINDOW 3 32 56 VTop 2
SYMATTR InstName R3
SYMATTR Value 120
SYMBOL LED 848 48 R0
SYMATTR InstName D2
SYMATTR Value QTLP690C
TEXT -560 280 Left 2 !.tran 20u
